clear

New circuit.Circuito31 bus1=61546321922435265AT
~ basekv=69 pu=1.10 


Redirect Linhas.dss
Redirect Chaves.dss
Redirect Cargas_var_pct.dss
Redirect Transformadores.dss

set voltagebases = [69]
CalcVoltageBases
solve

Buscoords Bus_XY.csv
