new line.16520305 phases=3 bus1=60935792920156948AT bus2=60917937920154594AT r1=0.268 x1=0.304 length=0.180095 Units=km 
new line.16520307 phases=3 bus1=61086767920176499AT bus2=61068812920174153AT r1=0.268 x1=0.304 length=0.181076 Units=km 
new line.16520308 phases=3 bus1=61099566920177683AT bus2=61086767920176499AT r1=0.268 x1=0.304 length=0.128536 Units=km 
new line.16520309 phases=3 bus1=61128021920181893AT bus2=61099566920177683AT r1=0.268 x1=0.304 length=0.28764799999999996 Units=km 
new line.16520380 phases=3 bus1=61370361920215740AT bus2=61362600920213729AT r1=0.268 x1=0.304 length=0.08017300000000001 Units=km 
new line.16520382 phases=3 bus1=61399828920228087AT bus2=61370361920215740AT r1=0.268 x1=0.304 length=0.319492 Units=km 
new line.16520384 phases=3 bus1=61398561920244982AT bus2=61394304920242173AT r1=0.268 x1=0.304 length=0.051002 Units=km 
new line.16520345 phases=3 bus1=61153788920181735AT bus2=61128021920181893AT r1=0.268 x1=0.304 length=0.257675 Units=km 
new line.16520347 phases=3 bus1=61173388920182056AT bus2=61153788920181735AT r1=0.268 x1=0.304 length=0.19602599999999998 Units=km 
new line.16520348 phases=3 bus1=61191906920181972AT bus2=61173388920182056AT r1=0.268 x1=0.304 length=0.185182 Units=km 
new line.16520350 phases=3 bus1=61220441920182168AT bus2=61191906920181972AT r1=0.268 x1=0.304 length=0.285357 Units=km 
new line.16520352 phases=3 bus1=61250316920182642AT bus2=61220441920182168AT r1=0.268 x1=0.304 length=0.298788 Units=km 
new line.16520354 phases=3 bus1=61270579920188065AT bus2=61250316920182642AT r1=0.268 x1=0.304 length=0.209761 Units=km 
new line.16520356 phases=3 bus1=61316498920200850AT bus2=61270579920188065AT r1=0.268 x1=0.304 length=0.476656 Units=km 
new line.16520358 phases=3 bus1=61340451920207212AT bus2=61316498920200850AT r1=0.268 x1=0.304 length=0.247835 Units=km 
new line.16520360 phases=3 bus1=61362600920213729AT bus2=61340451920207212AT r1=0.268 x1=0.304 length=0.23087900000000003 Units=km 
new line.16520363 phases=3 bus1=61394304920242173AT bus2=61399828920228087AT r1=0.268 x1=0.304 length=0.151304 Units=km 
new line.16520217 phases=3 bus1=60597732919993597AT bus2=60584927919983775AT r1=0.268 x1=0.304 length=0.161381 Units=km 
new line.16520219 phases=3 bus1=60627344920016426AT bus2=60597732919993597AT r1=0.268 x1=0.304 length=0.37390300000000004 Units=km 
new line.16520221 phases=3 bus1=60643028920028177AT bus2=60627344920016426AT r1=0.268 x1=0.304 length=0.19597799999999999 Units=km 
new line.16520222 phases=3 bus1=60659415920040812AT bus2=60643028920028177AT r1=0.268 x1=0.304 length=0.206924 Units=km 
new line.16520223 phases=3 bus1=60675641920053273AT bus2=60659415920040812AT r1=0.268 x1=0.304 length=0.20458700000000002 Units=km 
new line.16520224 phases=3 bus1=60689773920063948AT bus2=60675641920053273AT r1=0.268 x1=0.304 length=0.177107 Units=km 
new line.16520225 phases=3 bus1=60705883920076353AT bus2=60689773920063948AT r1=0.268 x1=0.304 length=0.203326 Units=km 
new line.16520245 phases=3 bus1=60502526919920618AT bus2=60486269919908637AT r1=0.268 x1=0.304 length=0.20194900000000002 Units=km 
new line.16520249 phases=3 bus1=60557033919962395AT bus2=60535640919945931AT r1=0.268 x1=0.304 length=0.269949 Units=km 
new line.16520250 phases=3 bus1=60572536919974016AT bus2=60557033919962395AT r1=0.268 x1=0.304 length=0.19375 Units=km 
new line.16520252 phases=3 bus1=60584927919983775AT bus2=60572536919974016AT r1=0.268 x1=0.304 length=0.157726 Units=km 
new line.16520253 phases=3 bus1=60722323920088927AT bus2=60705883920076353AT r1=0.268 x1=0.304 length=0.206973 Units=km 
new line.16520030 phases=3 bus1=60486269919908637AT bus2=60458153919886153AT r1=0.268 x1=0.304 length=0.360006 Units=km 
new line.16519626 phases=3 bus1=59715989919351405AT bus2=59696437919342819AT r1=0.268 x1=0.304 length=0.213542 Units=km 
new line.16520254 phases=3 bus1=60734812920098483AT bus2=60722323920088927AT r1=0.268 x1=0.304 length=0.157255 Units=km 
new line.16520255 phases=3 bus1=60748818920109102AT bus2=60734812920098483AT r1=0.268 x1=0.304 length=0.175764 Units=km 
new line.16520259 phases=3 bus1=60796045920127956AT bus2=60776848920120204AT r1=0.268 x1=0.304 length=0.20703099999999997 Units=km 
new line.16520260 phases=3 bus1=60813763920135514AT bus2=60796045920127956AT r1=0.268 x1=0.304 length=0.19262700000000002 Units=km 
new line.16520262 phases=3 bus1=60968675920160903AT bus2=60959538920159970AT r1=0.268 x1=0.304 length=0.091845 Units=km 
new line.16520266 phases=3 bus1=61013774920166555AT bus2=60987873920163511AT r1=0.268 x1=0.304 length=0.260793 Units=km 
new line.16520267 phases=3 bus1=61029772920169051AT bus2=61013774920166555AT r1=0.268 x1=0.304 length=0.161915 Units=km 
new line.16520268 phases=3 bus1=61056245920172460AT bus2=61029772920169051AT r1=0.268 x1=0.304 length=0.266916 Units=km 
new line.16520298 phases=3 bus1=60834125920139976AT bus2=60813763920135514AT r1=0.268 x1=0.304 length=0.208452 Units=km 
new line.16520299 phases=3 bus1=60846854920142573AT bus2=60834125920139976AT r1=0.268 x1=0.304 length=0.129912 Units=km 
new line.16520300 phases=3 bus1=60860318920145784AT bus2=60846854920142573AT r1=0.268 x1=0.304 length=0.13841599999999998 Units=km 
new line.16520301 phases=3 bus1=60876427920149327AT bus2=60860318920145784AT r1=0.268 x1=0.304 length=0.16494 Units=km 
new line.16520303 phases=3 bus1=60895893920151943AT bus2=60876427920149327AT r1=0.268 x1=0.304 length=0.19641 Units=km 
new line.16520304 phases=3 bus1=60917937920154594AT bus2=60895893920151943AT r1=0.268 x1=0.304 length=0.222028 Units=km 
new line.16519470 phases=3 bus1=56600868917368168AT bus2=56584151917356588AT r1=0.335 x1=0.392 length=0.20336 Units=km 
new line.16519624 phases=3 bus1=59683292919337169AT bus2=59668238919330496AT r1=0.268 x1=0.304 length=0.164667 Units=km 
new line.16519625 phases=3 bus1=59696437919342819AT bus2=59683292919337169AT r1=0.268 x1=0.304 length=0.143078 Units=km 
new line.334678670 phases=3 bus1=59777070919377579AT bus2=59764481919372459AT r1=0.268 x1=0.304 length=0.135903 Units=km 
new line.334678681 phases=3 bus1=59733058919358820AT bus2=59727378919356400AT r1=0.268 x1=0.304 length=0.06174 Units=km 
new line.184959756 phases=3 bus1=60198564919568932AT bus2=60187519919563074AT r1=0.268 x1=0.304 length=0.125023 Units=km 
new line.184959766 phases=3 bus1=60160891919550069AT bus2=60152272919545193AT r1=0.268 x1=0.304 length=0.099027 Units=km 
new line.185028470 phases=3 bus1=58040425918701548AT bus2=58025614918686953AT r1=0.335 x1=0.392 length=0.207937 Units=km 
new line.190241391 phases=3 bus1=58359043918949606AT bus2=58333557918932940AT r1=0.335 x1=0.392 length=0.304515 Units=km 
new line.16517029 phases=3 bus1=58716812919142639AT bus2=58703501919135913AT r1=0.335 x1=0.392 length=0.149138 Units=km 
new line.16516018 phases=3 bus1=61210775920711766AT bus2=61211239920684755AT r1=0.268 x1=0.304 length=0.27015 Units=km 
new line.16516019 phases=3 bus1=61211239920684755AT bus2=61211507920674642AT r1=0.268 x1=0.304 length=0.10116599999999999 Units=km 
new line.16516022 phases=3 bus1=61211507920674642AT bus2=61211945920652082AT r1=0.268 x1=0.304 length=0.225643 Units=km 
new line.16516023 phases=3 bus1=61211945920652082AT bus2=61212137920622204AT r1=0.268 x1=0.304 length=0.298786 Units=km 
new line.16516080 phases=3 bus1=61221419920773936AT bus2=61218110920756121AT r1=0.268 x1=0.304 length=0.181197 Units=km 
new line.16516082 phases=3 bus1=61212137920622204AT bus2=61219191920596501AT r1=0.268 x1=0.304 length=0.266534 Units=km 
new line.16516084 phases=3 bus1=61227367920809352AT bus2=61221419920773936AT r1=0.268 x1=0.304 length=0.35912 Units=km 
new line.16516086 phases=3 bus1=61219191920596501AT bus2=61226185920572527AT r1=0.268 x1=0.304 length=0.249734 Units=km 
new line.16516088 phases=3 bus1=61234266920854102AT bus2=61227367920809352AT r1=0.268 x1=0.304 length=0.452787 Units=km 
new line.16516991 phases=3 bus1=57775135918548371AT bus2=57759454918529622AT r1=0.335 x1=0.392 length=0.244422 Units=km 
new line.16516994 phases=3 bus1=57806830918588856AT bus2=57790940918568152AT r1=0.335 x1=0.392 length=0.260988 Units=km 
new line.16516995 phases=3 bus1=57816438918601280AT bus2=57806830918588856AT r1=0.335 x1=0.392 length=0.15705700000000003 Units=km 
new line.16517063 phases=3 bus1=58333557918932940AT bus2=58318225918923634AT r1=0.335 x1=0.392 length=0.179352 Units=km 
new line.16517068 phases=3 bus1=58413513918989733AT bus2=58382096918964734AT r1=0.335 x1=0.392 length=0.401494 Units=km 
new line.16517070 phases=3 bus1=58538896919062788AT bus2=58517542919056226AT r1=0.335 x1=0.392 length=0.223395 Units=km 
new line.16517071 phases=3 bus1=58557477919067578AT bus2=58538896919062788AT r1=0.335 x1=0.392 length=0.191885 Units=km 
new line.16516025 phases=3 bus1=61218110920756121AT bus2=61214935920734931AT r1=0.268 x1=0.304 length=0.21426499999999998 Units=km 
new line.16516027 phases=3 bus1=61226185920572527AT bus2=61229980920558345AT r1=0.268 x1=0.304 length=0.14681 Units=km 
new line.16516029 phases=3 bus1=61237794920874819AT bus2=61234266920854102AT r1=0.268 x1=0.304 length=0.21015299999999998 Units=km 
new line.16517072 phases=3 bus1=58572300919071944AT bus2=58557477919067578AT r1=0.335 x1=0.392 length=0.154526 Units=km 
new line.16517073 phases=3 bus1=58594457919079462AT bus2=58572300919071944AT r1=0.335 x1=0.392 length=0.233977 Units=km 
new line.16517074 phases=3 bus1=58612402919085538AT bus2=58594457919079462AT r1=0.335 x1=0.392 length=0.189457 Units=km 
new line.16517075 phases=3 bus1=58630221919090328AT bus2=58612402919085538AT r1=0.335 x1=0.392 length=0.18451599999999999 Units=km 
new line.16517076 phases=3 bus1=58644747919099626AT bus2=58630221919090328AT r1=0.335 x1=0.392 length=0.17247 Units=km 
new line.43322169 phases=3 bus1=58501062919045946AT bus2=58485261919036090AT r1=0.335 x1=0.392 length=0.186229 Units=km 
new line.16516031 phases=3 bus1=61240412920890722AT bus2=61237794920874819AT r1=0.268 x1=0.304 length=0.16117099999999998 Units=km 
new line.16516033 phases=3 bus1=61243846920916093AT bus2=61240412920890722AT r1=0.268 x1=0.304 length=0.25602299999999995 Units=km 
new line.16517031 phases=3 bus1=58761748919164373AT bus2=58746698919157674AT r1=0.335 x1=0.392 length=0.164736 Units=km 
new line.16517033 phases=3 bus1=58789714919170843AT bus2=58761748919164373AT r1=0.335 x1=0.392 length=0.28704700000000005 Units=km 
new line.16517034 phases=3 bus1=58956395919219232AT bus2=58940931919211215AT r1=0.335 x1=0.392 length=0.17418599999999998 Units=km 
new line.16516996 phases=3 bus1=57831291918618784AT bus2=57816438918601280AT r1=0.335 x1=0.392 length=0.229565 Units=km 
new line.16516999 phases=3 bus1=57994203918666166AT bus2=57971140918658179AT r1=0.335 x1=0.392 length=0.24406799999999998 Units=km 
new line.16517000 phases=3 bus1=58010740918672297AT bus2=57994203918666166AT r1=0.335 x1=0.392 length=0.17636900000000003 Units=km 
new line.16517001 phases=3 bus1=58025614918686953AT bus2=58010740918672297AT r1=0.335 x1=0.392 length=0.20881400000000003 Units=km 
new line.16517004 phases=3 bus1=58050416918711288AT bus2=58040425918701548AT r1=0.335 x1=0.392 length=0.13953100000000002 Units=km 
new line.16517005 phases=3 bus1=58065470918726394AT bus2=58050416918711288AT r1=0.335 x1=0.392 length=0.213264 Units=km 
new line.16517006 phases=3 bus1=58076355918736767AT bus2=58065470918726394AT r1=0.335 x1=0.392 length=0.15036000000000002 Units=km 
new line.16517007 phases=3 bus1=58201528918832977AT bus2=58179875918820382AT r1=0.335 x1=0.392 length=0.250497 Units=km 
new line.16517008 phases=3 bus1=58223116918845204AT bus2=58201528918832977AT r1=0.335 x1=0.392 length=0.248101 Units=km 
new line.16517010 phases=3 bus1=58256325918866147AT bus2=58223116918845204AT r1=0.335 x1=0.392 length=0.39261300000000005 Units=km 
new line.16517011 phases=3 bus1=58277426918884881AT bus2=58256325918866147AT r1=0.335 x1=0.392 length=0.282173 Units=km 
new line.16517015 phases=3 bus1=58318225918923634AT bus2=58296129918901679AT r1=0.335 x1=0.392 length=0.311489 Units=km 
new line.16517020 phases=3 bus1=58485261919036090AT bus2=58461863919022970AT r1=0.335 x1=0.392 length=0.268254 Units=km 
new line.16517022 phases=3 bus1=58517542919056226AT bus2=58501062919045946AT r1=0.335 x1=0.392 length=0.19423400000000002 Units=km 
new line.16517027 phases=3 bus1=58685796919126728AT bus2=58669263919119183AT r1=0.335 x1=0.392 length=0.181733 Units=km 
new line.16517028 phases=3 bus1=58703501919135913AT bus2=58685796919126728AT r1=0.335 x1=0.392 length=0.199457 Units=km 
new line.272368443 phases=3 bus1=61318126921866337AT bus2=61318471921855028AT r1=0.268 x1=0.304 length=0.11314299999999998 Units=km 
new line.272368453 phases=3 bus1=61266031921084546AT bus2=61264532921073179AT r1=0.268 x1=0.304 length=0.11465399999999999 Units=km 
new line.272368463 phases=3 bus1=61312084920407278AT bus2=61320931920390831AT r1=0.268 x1=0.304 length=0.186755 Units=km 
new line.16519777 phases=3 bus1=59788276919382136AT bus2=59777070919377579AT r1=0.268 x1=0.304 length=0.12097100000000001 Units=km 
new line.16519779 phases=3 bus1=59811451919392543AT bus2=59788276919382136AT r1=0.268 x1=0.304 length=0.25404499999999997 Units=km 
new line.16519781 phases=3 bus1=59838186919403884AT bus2=59811451919392543AT r1=0.268 x1=0.304 length=0.29041 Units=km 
new line.16515637 phases=3 bus1=61547616922395721AT bus2=61539420922376038AT r1=0.268 x1=0.304 length=0.213212 Units=km 
new line.16516701 phases=3 bus1=57759454918529622AT bus2=57742571918500526AT r1=0.335 x1=0.392 length=0.336395 Units=km 
new line.16515756 phases=3 bus1=61278674921163850AT bus2=61273279921139677AT r1=0.268 x1=0.304 length=0.247677 Units=km 
new line.16515757 phases=3 bus1=61263390920496996AT bus2=61274718920475367AT r1=0.268 x1=0.304 length=0.24415900000000001 Units=km 
new line.16515759 phases=3 bus1=61284911921192982AT bus2=61278674921163850AT r1=0.268 x1=0.304 length=0.297922 Units=km 
new line.16515761 phases=3 bus1=61295911921241932AT bus2=61284911921192982AT r1=0.268 x1=0.304 length=0.501707 Units=km 
new line.16515762 phases=3 bus1=61274718920475367AT bus2=61286574920453645AT r1=0.268 x1=0.304 length=0.24746900000000002 Units=km 
new line.16519654 phases=3 bus1=59642618919319343AT bus2=59640088919306313AT r1=0.268 x1=0.304 length=0.13273300000000002 Units=km 
new line.16519656 phases=3 bus1=59653239919323985AT bus2=59642618919319343AT r1=0.268 x1=0.304 length=0.115911 Units=km 
new line.16519658 phases=3 bus1=59668238919330496AT bus2=59653239919323985AT r1=0.268 x1=0.304 length=0.163512 Units=km 
new line.16516973 phases=3 bus1=57871240918629533AT bus2=57851802918626068AT r1=0.335 x1=0.392 length=0.197444 Units=km 
new line.16516974 phases=3 bus1=57912710918638322AT bus2=57871240918629533AT r1=0.335 x1=0.392 length=0.423911 Units=km 
new line.16516976 phases=3 bus1=57926871918642766AT bus2=57912710918638322AT r1=0.335 x1=0.392 length=0.148419 Units=km 
new line.16516978 phases=3 bus1=57949484918650922AT bus2=57926871918642766AT r1=0.335 x1=0.392 length=0.24038900000000002 Units=km 
new line.16516979 phases=3 bus1=57971140918658179AT bus2=57949484918650922AT r1=0.335 x1=0.392 length=0.228396 Units=km 
new line.16516982 phases=3 bus1=58098810918758986AT bus2=58090620918750769AT r1=0.335 x1=0.392 length=0.11601500000000001 Units=km 
new line.16516986 phases=3 bus1=58144036918799281AT bus2=58131560918792471AT r1=0.335 x1=0.392 length=0.14213599999999998 Units=km 
new line.16516987 phases=3 bus1=58167609918813296AT bus2=58144036918799281AT r1=0.335 x1=0.392 length=0.274246 Units=km 
new line.16516988 phases=3 bus1=58179875918820382AT bus2=58167609918813296AT r1=0.335 x1=0.392 length=0.141657 Units=km 
new line.16516989 phases=3 bus1=56514772917224060AT bus2=56521760917200924AT r1=0.335 x1=0.392 length=0.24168299999999998 Units=km 
new line.16516990 phases=3 bus1=56521760917200924AT bus2=56541136917185545AT r1=0.335 x1=0.392 length=0.247375 Units=km 
new line.16517255 phases=3 bus1=56547516917180531AT bus2=56554274917175492AT r1=0.335 x1=0.392 length=0.08429799999999998 Units=km 
new line.16517257 phases=3 bus1=56567824917345439AT bus2=56557376917336818AT r1=0.335 x1=0.392 length=0.13545600000000002 Units=km 
new line.16517258 phases=3 bus1=56561391917175123AT bus2=56557569917166919AT r1=0.335 x1=0.392 length=0.090506 Units=km 
new line.16517260 phases=3 bus1=56652865917427142AT bus2=56636049917408552AT r1=0.335 x1=0.392 length=0.250672 Units=km 
new line.16517261 phases=3 bus1=56665151917439299AT bus2=56652865917427142AT r1=0.335 x1=0.392 length=0.17284099999999997 Units=km 
new line.16517263 phases=3 bus1=56679800917457416AT bus2=56665151917439299AT r1=0.335 x1=0.392 length=0.23298500000000003 Units=km 
new line.16517266 phases=3 bus1=56720921917498633AT bus2=56694283917472546AT r1=0.335 x1=0.392 length=0.372842 Units=km 
new line.16517276 phases=3 bus1=56891330917673674AT bus2=56863931917650076AT r1=0.335 x1=0.392 length=0.361603 Units=km 
new line.16517278 phases=3 bus1=56558977917161134AT bus2=56560799917152816AT r1=0.335 x1=0.392 length=0.085152 Units=km 
new line.16517356 phases=3 bus1=57061166917840266AT bus2=57046883917827117AT r1=0.335 x1=0.392 length=0.194139 Units=km 
new line.16517357 phases=3 bus1=57082336917860721AT bus2=57061166917840266AT r1=0.335 x1=0.392 length=0.294377 Units=km 
new line.16517358 phases=3 bus1=57196661917977769AT bus2=57183535917959140AT r1=0.335 x1=0.392 length=0.227888 Units=km 
new line.16517360 phases=3 bus1=57223141918012632AT bus2=57196661917977769AT r1=0.335 x1=0.392 length=0.43779199999999996 Units=km 
new line.16517364 phases=3 bus1=57252238918055767AT bus2=57232012918024089AT r1=0.335 x1=0.392 length=0.375844 Units=km 
new line.16517366 phases=3 bus1=57258642918060282AT bus2=57252238918055767AT r1=0.335 x1=0.392 length=0.07835600000000001 Units=km 
new line.16517368 phases=3 bus1=57386355918132902AT bus2=57366764918121398AT r1=0.335 x1=0.392 length=0.22718900000000003 Units=km 
new line.16517369 phases=3 bus1=57403160918142651AT bus2=57386355918132902AT r1=0.335 x1=0.392 length=0.19428099999999998 Units=km 
new line.16517371 phases=3 bus1=57428749918156644AT bus2=57403160918142651AT r1=0.335 x1=0.392 length=0.291651 Units=km 
new line.16517373 phases=3 bus1=57457507918173349AT bus2=57428749918156644AT r1=0.335 x1=0.392 length=0.33257800000000004 Units=km 
new line.16517375 phases=3 bus1=57486497918189795AT bus2=57457507918173349AT r1=0.335 x1=0.392 length=0.3333 Units=km 
new line.16515795 phases=3 bus1=61320759921295752AT bus2=61309474921279287AT r1=0.268 x1=0.304 length=0.19961099999999998 Units=km 
new line.16515799 phases=3 bus1=61322784921965104AT bus2=61316258921912815AT r1=0.268 x1=0.304 length=0.526947 Units=km 
new line.16515803 phases=3 bus1=61340485921999068AT bus2=61323881921974111AT r1=0.268 x1=0.304 length=0.299757 Units=km 
new line.16515807 phases=3 bus1=61325575921693642AT bus2=61328955921664765AT r1=0.268 x1=0.304 length=0.29074099999999997 Units=km 
new line.16515810 phases=3 bus1=61259141921031503AT bus2=61256456921012630AT r1=0.268 x1=0.304 length=0.19063 Units=km 
new line.16515812 phases=3 bus1=61264532921073179AT bus2=61262447921057361AT r1=0.268 x1=0.304 length=0.159548 Units=km 
new line.16515792 phases=3 bus1=61318969921838743AT bus2=61307587921811100AT r1=0.268 x1=0.304 length=0.298946 Units=km 
new line.16515796 phases=3 bus1=61307587921811100AT bus2=61309802921762613AT r1=0.268 x1=0.304 length=0.485376 Units=km 
new line.16515801 phases=3 bus1=61321304921730418AT bus2=61323390921711200AT r1=0.268 x1=0.304 length=0.19330900000000004 Units=km 
new line.16515815 phases=3 bus1=61269015921106842AT bus2=61266031921084546AT r1=0.268 x1=0.304 length=0.22494799999999998 Units=km 
new line.16515805 phases=3 bus1=61323390921711200AT bus2=61325575921693642AT r1=0.268 x1=0.304 length=0.17693400000000004 Units=km 
new line.16515808 phases=3 bus1=61328955921664765AT bus2=61331704921643668AT r1=0.268 x1=0.304 length=0.212753 Units=km 
new line.16515811 phases=3 bus1=61262447921057361AT bus2=61259141921031503AT r1=0.268 x1=0.304 length=0.260685 Units=km 
new line.16515817 phases=3 bus1=61273279921139677AT bus2=61269015921106842AT r1=0.268 x1=0.304 length=0.331107 Units=km 
new line.16516904 phases=3 bus1=59498115919303192AT bus2=59475674919323407AT r1=0.335 x1=0.392 length=0.30203399999999997 Units=km 
new line.16516914 phases=3 bus1=59632223919293947AT bus2=59643418919288972AT r1=0.335 x1=0.392 length=0.122507 Units=km 
new line.16516937 phases=3 bus1=59137430919229974AT bus2=59114676919227709AT r1=0.335 x1=0.392 length=0.22866499999999998 Units=km 
new line.16516939 phases=3 bus1=59162723919233255AT bus2=59151083919231927AT r1=0.335 x1=0.392 length=0.117155 Units=km 
new line.16516943 phases=3 bus1=59240740919248203AT bus2=59221199919246319AT r1=0.335 x1=0.392 length=0.19631599999999996 Units=km 
new line.16516946 phases=3 bus1=59344677919376351AT bus2=59331483919376554AT r1=0.335 x1=0.392 length=0.13195600000000002 Units=km 
new line.16516949 phases=3 bus1=59378429919368832AT bus2=59364914919375265AT r1=0.335 x1=0.392 length=0.149679 Units=km 
new line.16516951 phases=3 bus1=59415085919351818AT bus2=59397023919360419AT r1=0.335 x1=0.392 length=0.200053 Units=km 
new line.16516955 phases=3 bus1=59530793919277735AT bus2=59519829919282669AT r1=0.335 x1=0.392 length=0.12023 Units=km 
new line.16516957 phases=3 bus1=59568449919281502AT bus2=59551105919278051AT r1=0.335 x1=0.392 length=0.17684 Units=km 
new line.16516935 phases=3 bus1=59114676919227709AT bus2=59093017919229270AT r1=0.335 x1=0.392 length=0.217152 Units=km 
new line.16516938 phases=3 bus1=59151083919231927AT bus2=59137430919229974AT r1=0.335 x1=0.392 length=0.13792 Units=km 
new line.16516941 phases=3 bus1=59221199919246319AT bus2=59176512919235502AT r1=0.335 x1=0.392 length=0.459776 Units=km 
new line.16516944 phases=3 bus1=59331483919376554AT bus2=59310324919345965AT r1=0.335 x1=0.392 length=0.37194 Units=km 
new line.16516947 phases=3 bus1=59364914919375265AT bus2=59344677919376351AT r1=0.335 x1=0.392 length=0.20266099999999998 Units=km 
new line.16516950 phases=3 bus1=59397023919360419AT bus2=59378429919368832AT r1=0.335 x1=0.392 length=0.20408700000000002 Units=km 
new line.16516899 phases=3 bus1=59450655919340143AT bus2=59433157919343479AT r1=0.335 x1=0.392 length=0.178132 Units=km 
new line.16516900 phases=3 bus1=59461631919333443AT bus2=59450655919340143AT r1=0.335 x1=0.392 length=0.12859299999999999 Units=km 
new line.16516902 phases=3 bus1=59475674919323407AT bus2=59461631919333443AT r1=0.335 x1=0.392 length=0.17260599999999998 Units=km 
new line.16516906 phases=3 bus1=59511967919289840AT bus2=59498115919303192AT r1=0.335 x1=0.392 length=0.192394 Units=km 
new line.16516952 phases=3 bus1=59433157919343479AT bus2=59415085919351818AT r1=0.335 x1=0.392 length=0.19903200000000001 Units=km 
new line.16516956 phases=3 bus1=59551105919278051AT bus2=59530793919277735AT r1=0.335 x1=0.392 length=0.20314500000000002 Units=km 
new line.16516959 phases=3 bus1=59603900919282939AT bus2=59585311919283911AT r1=0.335 x1=0.392 length=0.186144 Units=km 
new line.16517078 phases=3 bus1=58669263919119183AT bus2=58644747919099626AT r1=0.335 x1=0.392 length=0.31361 Units=km 
new line.16517080 phases=3 bus1=58835100919179942AT bus2=58821399919177519AT r1=0.335 x1=0.392 length=0.13913599999999998 Units=km 
new line.16517083 phases=3 bus1=58884958919189780AT bus2=58861636919185108AT r1=0.335 x1=0.392 length=0.237854 Units=km 
new line.16517084 phases=3 bus1=58899814919201793AT bus2=58884958919189780AT r1=0.335 x1=0.392 length=0.191053 Units=km 
new line.16517086 phases=3 bus1=58921611919203199AT bus2=58899814919201793AT r1=0.335 x1=0.392 length=0.218423 Units=km 
new line.16517087 phases=3 bus1=58940931919211215AT bus2=58921611919203199AT r1=0.335 x1=0.392 length=0.20916900000000002 Units=km 
new line.16516960 phases=3 bus1=59620762919281691AT bus2=59603900919282939AT r1=0.335 x1=0.392 length=0.16908099999999998 Units=km 
new line.16516967 phases=3 bus1=56515506917280440AT bus2=56514772917224060AT r1=0.335 x1=0.392 length=0.563848 Units=km 
new line.16516971 phases=3 bus1=57851802918626068AT bus2=57831291918618784AT r1=0.335 x1=0.392 length=0.21766 Units=km 
new line.16517296 phases=3 bus1=56907950917689568AT bus2=56891330917673674AT r1=0.335 x1=0.392 length=0.22996599999999998 Units=km 
new line.16517299 phases=3 bus1=56941294917721720AT bus2=56927952917709059AT r1=0.335 x1=0.392 length=0.183932 Units=km 
new line.16517305 phases=3 bus1=57093421917872373AT bus2=57082336917860721AT r1=0.335 x1=0.392 length=0.160825 Units=km 
new line.16517311 phases=3 bus1=57183535917959140AT bus2=57171986917945412AT r1=0.335 x1=0.392 length=0.179398 Units=km 
new line.16517316 phases=3 bus1=57314860918091945AT bus2=57287538918076407AT r1=0.335 x1=0.392 length=0.31431200000000004 Units=km 
new line.16517319 phases=3 bus1=57338904918105766AT bus2=57325788918098247AT r1=0.335 x1=0.392 length=0.15118399999999999 Units=km 
new line.16517323 phases=3 bus1=57501632918198427AT bus2=57486497918189795AT r1=0.335 x1=0.392 length=0.174235 Units=km 
new line.16517297 phases=3 bus1=56927952917709059AT bus2=56907950917689568AT r1=0.335 x1=0.392 length=0.279281 Units=km 
new line.16517301 phases=3 bus1=56963950917743231AT bus2=56941294917721720AT r1=0.335 x1=0.392 length=0.312413 Units=km 
new line.16517307 phases=3 bus1=57126265917903526AT bus2=57093421917872373AT r1=0.335 x1=0.392 length=0.452685 Units=km 
new line.16517314 phases=3 bus1=57287538918076407AT bus2=57258642918060282AT r1=0.335 x1=0.392 length=0.330907 Units=km 
new line.16517318 phases=3 bus1=57325788918098247AT bus2=57314860918091945AT r1=0.335 x1=0.392 length=0.126149 Units=km 
new line.16517321 phases=3 bus1=57366764918121398AT bus2=57338904918105766AT r1=0.335 x1=0.392 length=0.319459 Units=km 
new line.16517325 phases=3 bus1=57530094918214848AT bus2=57501632918198427AT r1=0.335 x1=0.392 length=0.328593 Units=km 
new line.16516961 phases=3 bus1=59636203919283768AT bus2=59620762919281691AT r1=0.335 x1=0.392 length=0.15580100000000002 Units=km 
new line.16516969 phases=3 bus1=56550050917326889AT bus2=56515506917280440AT r1=0.335 x1=0.392 length=0.578861 Units=km 
new line.16517268 phases=3 bus1=56809624917604922AT bus2=56789611917586846AT r1=0.335 x1=0.392 length=0.269678 Units=km 
new line.16517270 phases=3 bus1=56838450917629689AT bus2=56809624917604922AT r1=0.335 x1=0.392 length=0.380045 Units=km 
new line.16517272 phases=3 bus1=56846358917635543AT bus2=56838450917629689AT r1=0.335 x1=0.392 length=0.09839 Units=km 
new line.16517274 phases=3 bus1=56863931917650076AT bus2=56846358917635543AT r1=0.335 x1=0.392 length=0.22803900000000002 Units=km 
new line.16515819 phases=3 bus1=61286574920453645AT bus2=61298077920432215AT r1=0.268 x1=0.304 length=0.24322099999999997 Units=km 
new line.16516889 phases=3 bus1=59093017919229270AT bus2=59076256919230401AT r1=0.335 x1=0.392 length=0.16799099999999997 Units=km 
new line.16516893 phases=3 bus1=59273531919290853AT bus2=59256277919268480AT r1=0.335 x1=0.392 length=0.28253300000000003 Units=km 
new line.16516894 phases=3 bus1=59278781919299315AT bus2=59273531919290853AT r1=0.335 x1=0.392 length=0.099583 Units=km 
new line.16515821 phases=3 bus1=61309474921279287AT bus2=61301035921266826AT r1=0.268 x1=0.304 length=0.15049700000000002 Units=km 
new line.16516891 phases=3 bus1=59256277919268480AT bus2=59240740919248203AT r1=0.335 x1=0.392 length=0.255452 Units=km 
new line.16517280 phases=3 bus1=56560799917152816AT bus2=56564481917148192AT r1=0.335 x1=0.392 length=0.059108999999999995 Units=km 
new line.16517283 phases=3 bus1=56622203917393027AT bus2=56600868917368168AT r1=0.335 x1=0.392 length=0.32759 Units=km 
new line.16517288 phases=3 bus1=56755911917540934AT bus2=56745175917528334AT r1=0.335 x1=0.392 length=0.16553599999999996 Units=km 
new line.16517291 phases=3 bus1=56771679917570219AT bus2=56763336917554265AT r1=0.335 x1=0.392 length=0.18003799999999998 Units=km 
new line.16516895 phases=3 bus1=59289836919313646AT bus2=59278781919299315AT r1=0.335 x1=0.392 length=0.18099500000000002 Units=km 
new line.16516897 phases=3 bus1=59310324919345965AT bus2=59301573919333132AT r1=0.335 x1=0.392 length=0.155327 Units=km 
new line.16517279 phases=3 bus1=56554274917175492AT bus2=56561391917175123AT r1=0.335 x1=0.392 length=0.07126600000000001 Units=km 
new line.16517281 phases=3 bus1=56584151917356588AT bus2=56567824917345439AT r1=0.335 x1=0.392 length=0.19770500000000002 Units=km 
new line.16517286 phases=3 bus1=56745175917528334AT bus2=56720921917498633AT r1=0.335 x1=0.392 length=0.383459 Units=km 
new line.16517289 phases=3 bus1=56763336917554265AT bus2=56755911917540934AT r1=0.335 x1=0.392 length=0.15259299999999998 Units=km 
new line.16517293 phases=3 bus1=56789611917586846AT bus2=56771679917570219AT r1=0.335 x1=0.392 length=0.244543 Units=km 
new line.16517352 phases=3 bus1=57020188917799401AT bus2=57002081917781521AT r1=0.335 x1=0.392 length=0.25447200000000003 Units=km 
new line.16517354 phases=3 bus1=57046883917827117AT bus2=57020188917799401AT r1=0.335 x1=0.392 length=0.38481199999999993 Units=km 
new line.16517252 phases=3 bus1=56541136917185545AT bus2=56547516917180531AT r1=0.335 x1=0.392 length=0.081145 Units=km 
new line.16519862 phases=3 bus1=60069989919503615AT bus2=60051449919495318AT r1=0.268 x1=0.304 length=0.20311900000000002 Units=km 
new line.16519863 phases=3 bus1=60087681919511333AT bus2=60069989919503615AT r1=0.268 x1=0.304 length=0.19302200000000003 Units=km 
new line.16519866 phases=3 bus1=60235125919596488AT bus2=60224249919582511AT r1=0.268 x1=0.304 length=0.1771 Units=km 
new line.16519827 phases=3 bus1=60224249919582511AT bus2=60198564919568932AT r1=0.268 x1=0.304 length=0.29053500000000004 Units=km 